ieee_96_marie/raw_data/h20200101_0000-m/h20200101_0100_nobreaker_nostorage_nohvdc.m
function mpc = RTS_GMLC

%%%%%%%%%%%%%%%%%%%%%%%%%%%%%% RTS-GMLC Test Case %%%%%%%%%%%%%%%%%%%%%%%%%%%%%%
%%%%%%%%%%%%%%% By: Clayton Barrows, Ali Ehlen, Matt O Connell, %%%%%%%%%%%%%%%%
%%%%%%%%%% Dheepak Krishnamurthy, Brendan McBennett, and Aaron Bloom %%%%%%%%%%%
%%%%%%%%%%%%%%%%%%% National Renewable Energy Lab, Golden CO %%%%%%%%%%%%%%%%%%%
%%%%%%%%%%%%%%%%%%%%%%%%%%%%%%%%%%%%%%%%%%%%%%%%%%%%%%%%%%%%%%%%%%%%%%%%%%%%%%%%

%% MATPOWER Case Format : Version 2
mpc.version = '2';

%%-----  Power Flow Data  -----%%
%% system MVA base
mpc.baseMVA = 100.0;

    %% area data
    % area refbus
    mpc.areas = [
    1    101;
    2    201;
    3    301;
        ];

    %% bus data
    %	bus_i	type	Pd	Qd	Gs	Bs	area	Vm	Va	baseKV	zone	Vmax	Vmin
    mpc.bus = [
	101	2	33.513715576421056	22.0	0.0	0.0	1	1.04777	-7.74152	138.0	11	1.05	0.95
	102	2	30.100281582526318	20.0	0.0	0.0	1	1.04783	-7.81784	138.0	12	1.05	0.95
	103	1	55.85619262736842	37.0	0.0	0.0	1	1.01085	-7.21090	138.0	11	1.05	0.95
	104	1	22.963101413473684	15.0	0.0	0.0	1	1.01765	-10.56614	138.0	11	1.05	0.95
	105	1	22.032164869684213	14.0	0.0	0.0	1	1.03568	-10.70887	138.0	11	1.05	0.95
	106	1	42.202456651789475	28.0	0.0	-100.0	1	1.03242	-13.27944	138.0	12	1.05	0.95
	107	2	38.78902265789473	25.0	0.0	0.0	1	1.03745	-11.27673	138.0	12	1.05	0.95
	108	1	53.063382996	35.0	0.0	0.0	1	1.01024	-13.74967	138.0	12	1.05	0.95
	109	1	54.30463172105263	36.0	0.0	0.0	1	1.02610	-8.81524	138.0	13	1.05	0.95
	110	1	60.5108753463158	40.0	0.0	0.0	1	1.05000	-10.62063	138.0	13	1.05	0.95
	111	1	0.0	0.0	0.0	0.0	1	1.02764	-3.91674	230.0	13	1.05	0.95
	112	1	0.0	0.0	0.0	0.0	1	1.02024	-2.42424	230.0	13	1.05	0.95
	113	3	82.23272803473684	54.0	0.0	0.0	1	1.03943	0.00000	230.0	14	1.05	0.95
	114	2	60.200563165052635	39.0	0.0	0.0	1	1.04401	-1.73056	230.0	16	1.05	0.95
	115	2	98.36896146042105	64.0	0.0	0.0	1	1.04335	7.95970	230.0	16	1.05	0.95
	116	2	31.03121812631579	20.0	0.0	0.0	1	1.04565	7.56929	230.0	16	1.05	0.95
	117	1	0.0	0.0	0.0	0.0	1	1.04783	11.43417	230.0	17	1.05	0.95
	118	2	103.33395636063159	68.0	0.0	0.0	1	1.05000	12.52457	230.0	17	1.05	0.95
	119	1	56.16650480863158	37.0	0.0	0.0	1	1.03962	6.65777	230.0	15	1.05	0.95
	120	1	39.71995920168421	26.0	0.0	0.0	1	1.04399	7.74060	230.0	15	1.05	0.95
	121	2	0.0	0.0	0.0	0.0	1	1.05000	13.08653	230.0	17	1.05	0.95
	122	2	0.0	0.0	0.0	0.0	1	1.05000	18.94978	230.0	17	1.05	0.95
	123	2	0.0	0.0	0.0	0.0	1	1.05000	9.05617	230.0	15	1.05	0.95
	124	1	0.0	0.0	0.0	0.0	1	1.01155	2.38339	230.0	16	1.05	0.95
	201	2	40.277409991578956	22.0	0.0	0.0	2	1.04841	-10.68973	138.0	21	1.05	0.95
	202	2	36.175081196140354	20.0	0.0	0.0	2	1.04844	-10.75906	138.0	22	1.05	0.95
	203	1	67.12901665263159	37.0	0.0	0.0	2	1.01886	-10.47453	138.0	21	1.05	0.95
	204	1	27.59748462385965	15.0	0.0	0.0	2	1.01890	-13.48479	138.0	21	1.05	0.95
	205	1	26.478667679649124	14.0	0.0	0.0	2	1.03603	-13.61187	138.0	21	1.05	0.95
	206	1	50.7197014708772	28.0	0.0	-100.0	2	1.03259	-16.15672	138.0	22	1.05	0.95
	207	2	46.617372675438595	25.0	0.0	0.0	2	1.03973	-13.46606	138.0	22	1.05	0.95
	208	1	63.772565820000004	35.0	0.0	0.0	2	1.01203	-16.22359	138.0	22	1.05	0.95
	209	1	65.26432174561404	36.0	0.0	0.0	2	1.02781	-11.72409	138.0	23	1.05	0.95
	210	1	72.72310137368422	40.0	0.0	0.0	2	1.05000	-13.47986	138.0	23	1.05	0.95
	211	1	0.0	0.0	0.0	0.0	2	1.02735	-6.93336	230.0	23	1.05	0.95
	212	1	0.0	0.0	0.0	0.0	2	1.01921	-5.25334	230.0	23	1.05	0.95
	213	2	98.82883007192983	54.0	0.0	0.0	2	1.03752	-3.21510	230.0	24	1.05	0.95
	214	2	72.35016239228071	39.0	0.0	0.0	2	1.04335	-4.68519	230.0	26	1.05	0.95
	215	2	118.22165710491228	64.0	0.0	0.0	2	1.04327	4.63351	230.0	26	1.05	0.95
	216	2	37.293898140350876	20.0	0.0	0.0	2	1.04556	4.70009	230.0	26	1.05	0.95
	217	1	0.0	0.0	0.0	0.0	2	1.04847	8.81839	230.0	27	1.05	0.95
	218	2	124.18868080736844	68.0	0.0	0.0	2	1.05000	9.99473	230.0	27	1.05	0.95
	219	1	67.50195563403508	37.0	0.0	0.0	2	1.03946	4.21233	230.0	25	1.05	0.95
	220	1	47.736189619649124	26.0	0.0	0.0	2	1.04380	5.66449	230.0	25	1.05	0.95
	221	2	0.0	0.0	0.0	0.0	2	1.05000	10.63209	230.0	27	1.05	0.95
	222	2	0.0	0.0	0.0	0.0	2	1.05000	16.43203	230.0	27	1.05	0.95
	223	2	0.0	0.0	0.0	0.0	2	1.05000	7.18151	230.0	25	1.05	0.95
	224	1	0.0	0.0	0.0	0.0	2	1.01456	-0.96005	230.0	26	1.05	0.95
	301	2	44.00309243368421	22.0	0.0	0.0	3	1.04860	-9.34821	138.0	31	1.05	0.95
	302	2	39.52129598210526	20.0	0.0	0.0	3	1.04864	-9.43100	138.0	32	1.05	0.95
	303	1	73.33848738947368	37.0	0.0	0.0	3	1.01045	-8.57689	138.0	31	1.05	0.95
	304	1	30.150267037894732	15.0	0.0	0.0	3	1.01785	-12.18784	138.0	31	1.05	0.95
	305	1	28.927958914736838	14.0	0.0	0.0	3	1.03609	-12.35005	138.0	31	1.05	0.95
	306	1	55.41130158315789	28.0	0.0	-100.0	3	1.03260	-14.94205	138.0	32	1.05	0.95
	307	2	50.92950513157894	25.0	0.0	0.0	3	1.03804	-12.54795	138.0	32	1.05	0.95
	308	1	69.67156302	35.0	0.0	0.0	3	1.01056	-15.18287	138.0	32	1.05	0.95
	309	1	71.30130718421051	36.0	0.0	0.0	3	1.02579	-10.44617	138.0	33	1.05	0.95
	310	1	79.45002800526315	40.0	0.0	0.0	3	1.05000	-12.30117	138.0	33	1.05	0.95
	311	1	0.0	0.0	0.0	0.0	3	1.02830	-5.74069	230.0	33	1.05	0.95
	312	1	0.0	0.0	0.0	0.0	3	1.01900	-4.14604	230.0	33	1.05	0.95
	313	2	107.97055087894735	54.0	0.0	0.0	3	1.03802	-2.41513	230.0	34	1.05	0.95
	314	2	79.04259196421052	39.0	0.0	0.0	3	1.04631	-3.20793	230.0	36	1.05	0.95
	315	2	129.15722501368418	64.0	0.0	0.0	3	1.04300	7.05088	230.0	36	1.05	0.95
	316	2	40.74360410526315	20.0	0.0	0.0	3	1.04558	6.59875	230.0	36	1.05	0.95
	317	1	0.0	0.0	0.0	0.0	3	1.04785	10.34418	230.0	37	1.05	0.95
	318	2	135.6762016705263	68.0	0.0	0.0	3	1.05000	11.34262	230.0	37	1.05	0.95
	319	1	73.7459234305263	37.0	0.0	0.0	3	1.03953	5.91539	230.0	35	1.05	0.95
	320	1	52.15181325473684	26.0	0.0	0.0	3	1.04389	7.19709	230.0	35	1.05	0.95
	321	2	0.0	0.0	0.0	0.0	3	1.05000	12.34122	230.0	37	1.05	0.95
	322	2	0.0	0.0	0.0	0.0	3	1.05000	18.06914	230.0	37	1.05	0.95
	323	2	0.0	0.0	0.0	0.0	3	1.05000	8.62112	230.0	35	1.05	0.95
	324	1	0.0	0.0	0.0	0.0	3	1.01046	1.30606	230.0	36	1.05	0.95
	325	1	0.0	0.0	0.0	0.0	3	1.04986	8.99332	230.0	35	1.05	0.95
];

    %% generator data
    %	bus	Pg	Qg	Qmax	Qmin	Vg	mBase	status	Pmax	Pmin	Pc1	Pc2	Qc1min	Qc1max	Qc2min	Qc2max	ramp_agc	ramp_10	ramp_30	ramp_q	apf
    mpc.gen = [
	101	0.0	4.96	10	0	1.04680	100.0	1	20.0	8	0.0	0.0	0.0	0.0	0.0	0.0	3.0	3.0	3.0	3.0	0.0
	101	0.0	4.96	10	0	1.04680	100.0	1	20.0	8	0.0	0.0	0.0	0.0	0.0	0.0	3.0	3.0	3.0	3.0	0.0
	101	31.7161	0.14	30	-25	1.04680	100.0	1	76.0	30	0.0	0.0	0.0	0.0	0.0	0.0	2.0	2.0	2.0	2.0	0.0
	101	0.4545000000000003	0.14	30	-25	1.04680	100.0	1	76.0	30	0.0	0.0	0.0	0.0	0.0	0.0	2.0	2.0	2.0	2.0	0.0
	102	0.0	4.88	10	0	1.04670	100.0	1	20.0	8	0.0	0.0	0.0	0.0	0.0	0.0	3.0	3.0	3.0	3.0	0.0
	102	0.0	4.88	10	0	1.04670	100.0	1	20.0	8	0.0	0.0	0.0	0.0	0.0	0.0	3.0	3.0	3.0	3.0	0.0
	102	5.4545	-2.31	30	-25	1.04670	100.0	1	76.0	30	0.0	0.0	0.0	0.0	0.0	0.0	2.0	2.0	2.0	2.0	0.0
	102	20.9858	-2.31	30	-25	1.04670	100.0	1	76.0	30	0.0	0.0	0.0	0.0	0.0	0.0	2.0	2.0	2.0	2.0	0.0
	107	0.0	49.51	150	-25	1.05000	100.0	1	355.0	170	0.0	0.0	0.0	0.0	0.0	0.0	4.14	4.14	4.14	4.14	0.0
	113	0.0	19.0	19	-15	1.03470	100.0	1	55.0	22	0.0	0.0	0.0	0.0	0.0	0.0	3.7	3.7	3.7	3.7	0.0
	113	0.0	19.0	19	-15	1.03470	100.0	1	55.0	22	0.0	0.0	0.0	0.0	0.0	0.0	3.7	3.7	3.7	3.7	0.0
	113	0.0	19.0	19	-15	1.03470	100.0	1	55.0	22	0.0	0.0	0.0	0.0	0.0	0.0	3.7	3.7	3.7	3.7	0.0
	113	0.0	19.0	19	-15	1.03470	100.0	1	55.0	22	0.0	0.0	0.0	0.0	0.0	0.0	3.7	3.7	3.7	3.7	0.0
	115	0.0	6.0	6	0	1.04280	100.0	1	12.0	5	0.0	0.0	0.0	0.0	0.0	0.0	1.0	1.0	1.0	1.0	0.0
	115	0.0	6.0	6	0	1.04280	100.0	1	12.0	5	0.0	0.0	0.0	0.0	0.0	0.0	1.0	1.0	1.0	1.0	0.0
	115	155.0	80.0	80	-50	1.04280	100.0	1	155.0	62	0.0	0.0	0.0	0.0	0.0	0.0	3.0	3.0	3.0	3.0	0.0
	116	64.1775	80.0	80	-50	1.04610	100.0	1	155.0	62	0.0	0.0	0.0	0.0	0.0	0.0	3.0	3.0	3.0	3.0	0.0
	118	0.0	68.43	150	-25	1.05000	100.0	1	355.0	170	0.0	0.0	0.0	0.0	0.0	0.0	4.14	4.14	4.14	4.14	0.0
	123	14.8646	-5.19	80	-50	1.05000	100.0	1	155.0	62	0.0	0.0	0.0	0.0	0.0	0.0	3.0	3.0	3.0	3.0	0.0
	123	21.5385	28.41	150	-25	1.05000	100.0	1	350.0	140	0.0	0.0	0.0	0.0	0.0	0.0	4.0	4.0	4.0	4.0	0.0
	123	0.0	0.62	19	-15	1.05000	100.0	1	55.0	22	0.0	0.0	0.0	0.0	0.0	0.0	3.7	3.7	3.7	3.7	0.0
	123	0.0	0.62	19	-15	1.05000	100.0	1	55.0	22	0.0	0.0	0.0	0.0	0.0	0.0	3.7	3.7	3.7	3.7	0.0
	123	0.0	0.62	19	-15	1.05000	100.0	1	55.0	22	0.0	0.0	0.0	0.0	0.0	0.0	3.7	3.7	3.7	3.7	0.0
	201	20.0	5.29	10	0	1.05000	100.0	1	20.0	8	0.0	0.0	0.0	0.0	0.0	0.0	3.0	3.0	3.0	3.0	0.0
	201	20.0	5.29	10	0	1.05000	100.0	1	20.0	8	0.0	0.0	0.0	0.0	0.0	0.0	3.0	3.0	3.0	3.0	0.0
	201	5.4545	6.99	30	-25	1.05000	100.0	1	76.0	30	0.0	0.0	0.0	0.0	0.0	0.0	2.0	2.0	2.0	2.0	0.0
	202	20.0	5.13	10	0	1.05000	100.0	1	20.0	8	0.0	0.0	0.0	0.0	0.0	0.0	3.0	3.0	3.0	3.0	0.0
	202	20.0	5.13	10	0	1.05000	100.0	1	20.0	8	0.0	0.0	0.0	0.0	0.0	0.0	3.0	3.0	3.0	3.0	0.0
	202	14.3295	2.01	30	-25	1.05000	100.0	1	76.0	30	0.0	0.0	0.0	0.0	0.0	0.0	2.0	2.0	2.0	2.0	0.0
	202	5.4545	2.01	30	-25	1.05000	100.0	1	76.0	30	0.0	0.0	0.0	0.0	0.0	0.0	2.0	2.0	2.0	2.0	0.0
	207	0.0	19.0	19	-15	0.96990	100.0	1	55.0	22	0.0	0.0	0.0	0.0	0.0	0.0	3.7	3.7	3.7	3.7	0.0
	207	0.0	19.0	19	-15	0.96990	100.0	1	55.0	22	0.0	0.0	0.0	0.0	0.0	0.0	3.7	3.7	3.7	3.7	0.0
	213	0.0	135.8	150	-25	1.05000	100.0	1	355.0	170	0.0	0.0	0.0	0.0	0.0	0.0	4.14	4.14	4.14	4.14	0.0
	213	0.0	9.23	19	-15	1.05000	100.0	1	55.0	22	0.0	0.0	0.0	0.0	0.0	0.0	3.7	3.7	3.7	3.7	0.0
	213	0.0	9.23	19	-15	1.05000	100.0	1	55.0	22	0.0	0.0	0.0	0.0	0.0	0.0	3.7	3.7	3.7	3.7	0.0
	215	0.0	19.0	19	-15	1.04370	100.0	1	55.0	22	0.0	0.0	0.0	0.0	0.0	0.0	3.7	3.7	3.7	3.7	0.0
	215	0.0	19.0	19	-15	1.04370	100.0	1	55.0	22	0.0	0.0	0.0	0.0	0.0	0.0	3.7	3.7	3.7	3.7	0.0
	216	10.3333	80.0	80	-50	1.04730	100.0	1	155.0	62	0.0	0.0	0.0	0.0	0.0	0.0	3.0	3.0	3.0	3.0	0.0
	218	0.0	60.3	150	-25	1.05000	100.0	1	355.0	170	0.0	0.0	0.0	0.0	0.0	0.0	4.14	4.14	4.14	4.14	0.0
	221	0.0	-7.52	150	-25	1.05000	100.0	1	355.0	170	0.0	0.0	0.0	0.0	0.0	0.0	4.14	4.14	4.14	4.14	0.0
	223	37.5208	-10.31	80	-50	1.05000	100.0	1	155.0	62	0.0	0.0	0.0	0.0	0.0	0.0	3.0	3.0	3.0	3.0	0.0
	223	155.0	-10.31	80	-50	1.05000	100.0	1	155.0	62	0.0	0.0	0.0	0.0	0.0	0.0	3.0	3.0	3.0	3.0	0.0
	223	59.0385	20.59	150	-25	1.05000	100.0	1	350.0	140	0.0	0.0	0.0	0.0	0.0	0.0	4.0	4.0	4.0	4.0	0.0
	223	0.0	0.24	19	-15	1.05000	100.0	1	55.0	22	0.0	0.0	0.0	0.0	0.0	0.0	3.7	3.7	3.7	3.7	0.0
	223	0.0	0.24	19	-15	1.05000	100.0	1	55.0	22	0.0	0.0	0.0	0.0	0.0	0.0	3.7	3.7	3.7	3.7	0.0
	223	0.0	0.24	19	-15	1.05000	100.0	1	55.0	22	0.0	0.0	0.0	0.0	0.0	0.0	3.7	3.7	3.7	3.7	0.0
	301	0.0	7.95	10	0	1.05000	100.0	1	20.0	8	0.0	0.0	0.0	0.0	0.0	0.0	3.0	3.0	3.0	3.0	0.0
	301	0.0	7.95	10	0	1.05000	100.0	1	20.0	8	0.0	0.0	0.0	0.0	0.0	0.0	3.0	3.0	3.0	3.0	0.0
	301	0.0	16.53	19	-15	1.05000	100.0	1	55.0	22	0.0	0.0	0.0	0.0	0.0	0.0	3.7	3.7	3.7	3.7	0.0
	301	0.0	16.53	19	-15	1.05000	100.0	1	55.0	22	0.0	0.0	0.0	0.0	0.0	0.0	3.7	3.7	3.7	3.7	0.0
	302	0.0	6.16	10	0	1.05000	100.0	1	20.0	8	0.0	0.0	0.0	0.0	0.0	0.0	3.0	3.0	3.0	3.0	0.0
	302	0.0	6.16	10	0	1.05000	100.0	1	20.0	8	0.0	0.0	0.0	0.0	0.0	0.0	3.0	3.0	3.0	3.0	0.0
	302	0.0	10.99	19	-15	1.05000	100.0	1	55.0	22	0.0	0.0	0.0	0.0	0.0	0.0	3.7	3.7	3.7	3.7	0.0
	302	0.0	10.99	19	-15	1.05000	100.0	1	55.0	22	0.0	0.0	0.0	0.0	0.0	0.0	3.7	3.7	3.7	3.7	0.0
	307	0.0	19.0	19	-15	0.95680	100.0	1	55.0	22	0.0	0.0	0.0	0.0	0.0	0.0	3.7	3.7	3.7	3.7	0.0
	307	0.0	19.0	19	-15	0.95680	100.0	1	55.0	22	0.0	0.0	0.0	0.0	0.0	0.0	3.7	3.7	3.7	3.7	0.0
	313	0.0	150.0	150	-25	1.03500	100.0	1	355.0	170	0.0	0.0	0.0	0.0	0.0	0.0	4.14	4.14	4.14	4.14	0.0
	315	0.0	6.0	6	0	1.04220	100.0	1	12.0	5	0.0	0.0	0.0	0.0	0.0	0.0	1.0	1.0	1.0	1.0	0.0
	315	0.0	6.0	6	0	1.04220	100.0	1	12.0	5	0.0	0.0	0.0	0.0	0.0	0.0	1.0	1.0	1.0	1.0	0.0
	315	0.0	6.0	6	0	1.04220	100.0	1	12.0	5	0.0	0.0	0.0	0.0	0.0	0.0	1.0	1.0	1.0	1.0	0.0
	315	0.0	6.0	6	0	1.04220	100.0	1	12.0	5	0.0	0.0	0.0	0.0	0.0	0.0	1.0	1.0	1.0	1.0	0.0
	315	0.0	6.0	6	0	1.04220	100.0	1	12.0	5	0.0	0.0	0.0	0.0	0.0	0.0	1.0	1.0	1.0	1.0	0.0
	315	0.0	19.0	19	-15	1.04220	100.0	1	55.0	22	0.0	0.0	0.0	0.0	0.0	0.0	3.7	3.7	3.7	3.7	0.0
	315	0.0	19.0	19	-15	1.04220	100.0	1	55.0	22	0.0	0.0	0.0	0.0	0.0	0.0	3.7	3.7	3.7	3.7	0.0
	315	0.0	60.0	60	0	1.04220	100.0	1	55.0	22	0.0	0.0	0.0	0.0	0.0	0.0	3.7	3.7	3.7	3.7	0.0
	316	0.3332999999999995	80.0	80	-50	1.04490	100.0	1	155.0	62	0.0	0.0	0.0	0.0	0.0	0.0	3.0	3.0	3.0	3.0	0.0
	318	0.0	63.12	150	-25	1.05000	100.0	1	355.0	170	0.0	0.0	0.0	0.0	0.0	0.0	4.14	4.14	4.14	4.14	0.0
	321	0.0	-3.34	150	-25	1.05000	100.0	1	355.0	170	0.0	0.0	0.0	0.0	0.0	0.0	4.14	4.14	4.14	4.14	0.0
	322	0.0	-9.73	19	-15	1.05000	100.0	1	55.0	22	0.0	0.0	0.0	0.0	0.0	0.0	3.7	3.7	3.7	3.7	0.0
	322	0.0	-9.73	19	-15	1.05000	100.0	1	55.0	22	0.0	0.0	0.0	0.0	0.0	0.0	3.7	3.7	3.7	3.7	0.0
	323	0.0	37.41	150	-25	1.05000	100.0	1	355.0	170	0.0	0.0	0.0	0.0	0.0	0.0	4.14	4.14	4.14	4.14	0.0
	323	0.0	37.41	150	-25	1.05000	100.0	1	355.0	170	0.0	0.0	0.0	0.0	0.0	0.0	4.14	4.14	4.14	4.14	0.0
	121	0.0	-21.87	200	-50	1.05000	100.0	1	400.0	396	0.0	0.0	0.0	0.0	0.0	0.0	20.0	20.0	20.0	20.0	0.0
	122	3.9681	-6.79	16	-10	1.05000	100.0	1	3.975694444	0	0.0	0.0	0.0	0.0	0.0	0.0	50.0	50.0	50.0	50.0	0.0
	122	3.9681	-6.79	16	-10	1.05000	100.0	1	3.975694444	0	0.0	0.0	0.0	0.0	0.0	0.0	50.0	50.0	50.0	50.0	0.0
	122	3.9681	-6.79	16	-10	1.05000	100.0	1	3.975694444	0	0.0	0.0	0.0	0.0	0.0	0.0	50.0	50.0	50.0	50.0	0.0
	122	3.9681	-6.79	16	-10	1.05000	100.0	1	3.975694444	0	0.0	0.0	0.0	0.0	0.0	0.0	50.0	50.0	50.0	50.0	0.0
	122	3.9681	-6.79	16	-10	1.05000	100.0	1	3.975694444	0	0.0	0.0	0.0	0.0	0.0	0.0	50.0	50.0	50.0	50.0	0.0
	122	3.9681	-6.79	16	-10	1.05000	100.0	1	3.975694444	0	0.0	0.0	0.0	0.0	0.0	0.0	50.0	50.0	50.0	50.0	0.0
	201	9.412152778	4.15	16	-10	1.05000	100.0	1	9.412152778	0	0.0	0.0	0.0	0.0	0.0	0.0	50.0	50.0	50.0	50.0	0.0
	215	9.412152778	16.0	16	-10	1.04370	100.0	1	9.412152778	0	0.0	0.0	0.0	0.0	0.0	0.0	50.0	50.0	50.0	50.0	0.0
	215	9.412152778	16.0	16	-10	1.04370	100.0	1	9.412152778	0	0.0	0.0	0.0	0.0	0.0	0.0	50.0	50.0	50.0	50.0	0.0
	215	9.412152778	16.0	16	-10	1.04370	100.0	1	9.412152778	0	0.0	0.0	0.0	0.0	0.0	0.0	50.0	50.0	50.0	50.0	0.0
	222	9.412152778	-6.97	16	-10	1.05000	100.0	1	9.412152778	0	0.0	0.0	0.0	0.0	0.0	0.0	50.0	50.0	50.0	50.0	0.0
	222	9.412152778	-6.97	16	-10	1.05000	100.0	1	9.412152778	0	0.0	0.0	0.0	0.0	0.0	0.0	50.0	50.0	50.0	50.0	0.0
	222	9.412152778	-6.97	16	-10	1.05000	100.0	1	9.412152778	0	0.0	0.0	0.0	0.0	0.0	0.0	50.0	50.0	50.0	50.0	0.0
	222	9.412152778	-6.97	16	-10	1.05000	100.0	1	9.412152778	0	0.0	0.0	0.0	0.0	0.0	0.0	50.0	50.0	50.0	50.0	0.0
	222	9.412152778	-6.97	16	-10	1.05000	100.0	1	9.412152778	0	0.0	0.0	0.0	0.0	0.0	0.0	50.0	50.0	50.0	50.0	0.0
	222	9.412152778	-6.97	16	-10	1.05000	100.0	1	9.412152778	0	0.0	0.0	0.0	0.0	0.0	0.0	50.0	50.0	50.0	50.0	0.0
	322	16.2015	-5.13	16	-10	1.05000	100.0	1	18.63090278	0	0.0	0.0	0.0	0.0	0.0	0.0	50.0	50.0	50.0	50.0	0.0
	322	16.2015	-5.13	16	-10	1.05000	100.0	1	18.63090278	0	0.0	0.0	0.0	0.0	0.0	0.0	50.0	50.0	50.0	50.0	0.0
	322	16.2015	-5.13	16	-10	1.05000	100.0	1	18.63090278	0	0.0	0.0	0.0	0.0	0.0	0.0	50.0	50.0	50.0	50.0	0.0
	322	16.2015	-5.13	16	-10	1.05000	100.0	1	18.63090278	0	0.0	0.0	0.0	0.0	0.0	0.0	50.0	50.0	50.0	50.0	0.0
	320	0.0	0.0	0	0	1.00000	100.0	1	0.0	0	0.0	0.0	0.0	0.0	0.0	0.0	51.6	51.6	51.6	51.6	0.0
	314	0.0	0.0	0	0	1.00000	100.0	1	0.0	0	0.0	0.0	0.0	0.0	0.0	0.0	51.6	51.6	51.6	51.6	0.0
	314	0.0	0.0	0	0	1.00000	100.0	1	0.0	0	0.0	0.0	0.0	0.0	0.0	0.0	51.6	51.6	51.6	51.6	0.0
	313	0.0	0.0	0	0	1.00000	100.0	1	0.0	0	0.0	0.0	0.0	0.0	0.0	0.0	95.1	95.1	95.1	95.1	0.0
	314	0.0	0.0	0	0	1.00000	100.0	1	0.0	0	0.0	0.0	0.0	0.0	0.0	0.0	92.7	92.7	92.7	92.7	0.0
	314	0.0	0.0	0	0	1.00000	100.0	1	0.0	0	0.0	0.0	0.0	0.0	0.0	0.0	51.6	51.6	51.6	51.6	0.0
	313	0.0	0.0	0	0	1.00000	100.0	1	0.0	0	0.0	0.0	0.0	0.0	0.0	0.0	93.3	93.3	93.3	93.3	0.0
	310	0.0	0.0	0	0	1.00000	100.0	1	0.0	0	0.0	0.0	0.0	0.0	0.0	0.0	51.7	51.7	51.7	51.7	0.0
	324	0.0	0.0	0	0	1.00000	100.0	1	0.0	0	0.0	0.0	0.0	0.0	0.0	0.0	49.7	49.7	49.7	49.7	0.0
	312	0.0	0.0	0	0	1.00000	100.0	1	0.0	0	0.0	0.0	0.0	0.0	0.0	0.0	94.1	94.1	94.1	94.1	0.0
	310	0.0	0.0	0	0	1.00000	100.0	1	0.0	0	0.0	0.0	0.0	0.0	0.0	0.0	51.6	51.6	51.6	51.6	0.0
	324	0.0	0.0	0	0	1.00000	100.0	1	0.0	0	0.0	0.0	0.0	0.0	0.0	0.0	51.6	51.6	51.6	51.6	0.0
	324	0.0	0.0	0	0	1.00000	100.0	1	0.0	0	0.0	0.0	0.0	0.0	0.0	0.0	51.0	51.0	51.0	51.0	0.0
	113	0.0	0.0	0	0	1.00000	100.0	1	0.0	0	0.0	0.0	0.0	0.0	0.0	0.0	93.6	93.6	93.6	93.6	0.0
	319	0.0	0.0	0	0	1.00000	100.0	1	0.0	0	0.0	0.0	0.0	0.0	0.0	0.0	188.2	188.2	188.2	188.2	0.0
	215	0.0	0.0	0	0	1.00000	100.0	1	0.0	0	0.0	0.0	0.0	0.0	0.0	0.0	125.1	125.1	125.1	125.1	0.0
	102	0.0	0.0	0	0	1.00000	100.0	1	0.0	0	0.0	0.0	0.0	0.0	0.0	0.0	25.6	25.6	25.6	25.6	0.0
	101	0.0	0.0	0	0	1.00000	100.0	1	0.0	0	0.0	0.0	0.0	0.0	0.0	0.0	25.9	25.9	25.9	25.9	0.0
	102	0.0	0.0	0	0	1.00000	100.0	1	0.0	0	0.0	0.0	0.0	0.0	0.0	0.0	25.3	25.3	25.3	25.3	0.0
	104	0.0	0.0	0	0	1.00000	100.0	1	0.0	0	0.0	0.0	0.0	0.0	0.0	0.0	26.8	26.8	26.8	26.8	0.0
	212	0.0	0.0	0	0	1.00000	100.0	1	0.0	0	0.0	0.0	0.0	0.0	0.0	0.0	20.0	20.0	20.0	20.0	0.0
	101	0.0	0.0	0	0	1.00000	100.0	1	0.0	0	0.0	0.0	0.0	0.0	0.0	0.0	26.7	26.7	26.7	26.7	0.0
	101	0.0	0.0	0	0	1.00000	100.0	1	0.0	0	0.0	0.0	0.0	0.0	0.0	0.0	26.2	26.2	26.2	26.2	0.0
	101	0.0	0.0	0	0	1.00000	100.0	1	0.0	0	0.0	0.0	0.0	0.0	0.0	0.0	25.8	25.8	25.8	25.8	0.0
	103	0.0	0.0	0	0	1.00000	100.0	1	0.0	0	0.0	0.0	0.0	0.0	0.0	0.0	61.5	61.5	61.5	61.5	0.0
	119	0.0	0.0	0	0	1.00000	100.0	1	0.0	0	0.0	0.0	0.0	0.0	0.0	0.0	66.6	66.6	66.6	66.6	0.0
	308	0.0	0.0	0	0	1.00000	100.0	1	0.0	0	0.0	0.0	0.0	0.0	0.0	0.0	100.9	100.9	100.9	100.9	0.0
	313	0.0	0.0	0	0	1.00000	100.0	1	0.0	0	0.0	0.0	0.0	0.0	0.0	0.0	101.7	101.7	101.7	101.7	0.0
	313	0.0	0.0	0	0	1.00000	100.0	1	0.0	0	0.0	0.0	0.0	0.0	0.0	0.0	63.1	63.1	63.1	63.1	0.0
	313	0.0	0.0	0	0	1.00000	100.0	1	0.0	0	0.0	0.0	0.0	0.0	0.0	0.0	65.4	65.4	65.4	65.4	0.0
	313	0.0	0.0	0	0	1.00000	100.0	1	0.0	0	0.0	0.0	0.0	0.0	0.0	0.0	67.0	67.0	67.0	67.0	0.0
	313	0.0	0.0	0	0	1.00000	100.0	1	0.0	0	0.0	0.0	0.0	0.0	0.0	0.0	64.8	64.8	64.8	64.8	0.0
	313	0.0	0.0	0	0	1.00000	100.0	1	0.0	0	0.0	0.0	0.0	0.0	0.0	0.0	63.8	63.8	63.8	63.8	0.0
	313	0.0	0.0	0	0	1.00000	100.0	1	0.0	0	0.0	0.0	0.0	0.0	0.0	0.0	64.1	64.1	64.1	64.1	0.0
	313	0.0	0.0	0	0	1.00000	100.0	1	0.0	0	0.0	0.0	0.0	0.0	0.0	0.0	66.6	66.6	66.6	66.6	0.0
	313	0.0	0.0	0	0	1.00000	100.0	1	0.0	0	0.0	0.0	0.0	0.0	0.0	0.0	62.4	62.4	62.4	62.4	0.0
	313	0.0	0.0	0	0	1.00000	100.0	1	0.0	0	0.0	0.0	0.0	0.0	0.0	0.0	66.9	66.9	66.9	66.9	0.0
	313	0.0	0.0	0	0	1.00000	100.0	1	0.0	0	0.0	0.0	0.0	0.0	0.0	0.0	65.2	65.2	65.2	65.2	0.0
	313	0.0	0.0	0	0	1.00000	100.0	1	0.0	0	0.0	0.0	0.0	0.0	0.0	0.0	27.8	27.8	27.8	27.8	0.0
	320	0.0	0.0	0	0	1.00000	100.0	1	0.0	0	0.0	0.0	0.0	0.0	0.0	0.0	27.3	27.3	27.3	27.3	0.0
	320	0.0	0.0	0	0	1.00000	100.0	1	0.0	0	0.0	0.0	0.0	0.0	0.0	0.0	27.0	27.0	27.0	27.0	0.0
	320	0.0	0.0	0	0	1.00000	100.0	1	0.0	0	0.0	0.0	0.0	0.0	0.0	0.0	28.3	28.3	28.3	28.3	0.0
	313	0.0	0.0	0	0	1.00000	100.0	1	0.0	0	0.0	0.0	0.0	0.0	0.0	0.0	27.2	27.2	27.2	27.2	0.0
	320	0.0	0.0	0	0	1.00000	100.0	1	0.0	0	0.0	0.0	0.0	0.0	0.0	0.0	27.0	27.0	27.0	27.0	0.0
	320	0.0	0.0	0	0	1.00000	100.0	1	0.0	0	0.0	0.0	0.0	0.0	0.0	0.0	28.2	28.2	28.2	28.2	0.0
	118	0.0	0.0	0	0	1.00000	100.0	1	0.0	0	0.0	0.0	0.0	0.0	0.0	0.0	9.3	9.3	9.3	9.3	0.0
	118	0.0	0.0	0	0	1.00000	100.0	1	0.0	0	0.0	0.0	0.0	0.0	0.0	0.0	9.7	9.7	9.7	9.7	0.0
	118	0.0	0.0	0	0	1.00000	100.0	1	0.0	0	0.0	0.0	0.0	0.0	0.0	0.0	9.4	9.4	9.4	9.4	0.0
	118	0.0	0.0	0	0	1.00000	100.0	1	0.0	0	0.0	0.0	0.0	0.0	0.0	0.0	9.1	9.1	9.1	9.1	0.0
	118	0.0	0.0	0	0	1.00000	100.0	1	0.0	0	0.0	0.0	0.0	0.0	0.0	0.0	9.1	9.1	9.1	9.1	0.0
	118	0.0	0.0	0	0	1.00000	100.0	1	0.0	0	0.0	0.0	0.0	0.0	0.0	0.0	9.7	9.7	9.7	9.7	0.0
	320	0.0	0.0	0	0	1.00000	100.0	1	0.0	0	0.0	0.0	0.0	0.0	0.0	0.0	9.4	9.4	9.4	9.4	0.0
	118	0.0	0.0	0	0	1.00000	100.0	1	0.0	0	0.0	0.0	0.0	0.0	0.0	0.0	11.8	11.8	11.8	11.8	0.0
	118	0.0	0.0	0	0	1.00000	100.0	1	0.0	0	0.0	0.0	0.0	0.0	0.0	0.0	11.2	11.2	11.2	11.2	0.0
	118	0.0	0.0	0	0	1.00000	100.0	1	0.0	0	0.0	0.0	0.0	0.0	0.0	0.0	10.3	10.3	10.3	10.3	0.0
	118	0.0	0.0	0	0	1.00000	100.0	1	0.0	0	0.0	0.0	0.0	0.0	0.0	0.0	4.5	4.5	4.5	4.5	0.0
	213	0.0	0.0	0	0	1.00000	100.0	1	0.0	0	0.0	0.0	0.0	0.0	0.0	0.0	13.2	13.2	13.2	13.2	0.0
	309	127.8777	0.0	0	0	1.00000	100.0	1	143.6280892	0	0.0	0.0	0.0	0.0	0.0	0.0	148.3	148.3	148.3	148.3	0.0
	317	701.5706	0.0	0	0	1.00000	100.0	1	781.8718975	0	0.0	0.0	0.0	0.0	0.0	0.0	799.1	799.1	799.1	799.1	0.0
	303	654.5915	0.0	0	0	1.00000	100.0	1	750.1153626	0	0.0	0.0	0.0	0.0	0.0	0.0	847.0	847.0	847.0	847.0	0.0
	122	703.8371843	0.0	0	0	1.00000	100.0	1	703.8371843	0	0.0	0.0	0.0	0.0	0.0	0.0	713.5	713.5	713.5	713.5	0.0
];

    %% branch data
    %	fbus	tbus	r	x	b	rateA	rateB	rateC	ratio	angle	status	angmin	angmax
    mpc.branch = [
	101	102	0.00300	0.01400	0.46100	175	175	175	0.0	0.0	1	-60	60
	101	103	0.05500	0.21100	0.05700	175	175	175	0.0	0.0	1	-60	60
	101	105	0.02200	0.08500	0.02300	175	175	175	0.0	0.0	1	-60	60
	102	104	0.03300	0.12700	0.03400	175	175	175	0.0	0.0	1	-60	60
	102	106	0.05000	0.19200	0.05200	175	175	175	0.0	0.0	1	-60	60
	103	109	0.03100	0.11900	0.03200	175	175	175	0.0	0.0	1	-60	60
	103	124	0.00200	0.08400	0.00000	400	400	400	1.015	0.0	1	-60	60
	104	109	0.02700	0.10400	0.02800	175	175	175	0.0	0.0	1	-60	60
	105	110	0.02300	0.08800	0.02400	175	175	175	0.0	0.0	1	-60	60
	106	110	0.01400	0.06100	2.45900	175	175	175	0.0	0.0	1	-60	60
	107	108	0.01600	0.06100	0.01700	175	175	175	0.0	0.0	1	-60	60
	107	203	0.04200	0.16100	0.04400	175	175	175	0.0	0.0	1	-60	60
	108	109	0.04300	0.16500	0.04500	175	175	175	0.0	0.0	1	-60	60
	108	110	0.04300	0.16500	0.04500	175	175	175	0.0	0.0	1	-60	60
	109	111	0.00200	0.08400	0.00000	400	400	400	1.03	0.0	1	-60	60
	109	112	0.00200	0.08400	0.00000	400	400	400	1.03	0.0	1	-60	60
	110	111	0.00200	0.08400	0.00000	400	400	400	1.015	0.0	1	-60	60
	110	112	0.00200	0.08400	0.00000	400	400	400	1.015	0.0	1	-60	60
	111	113	0.00600	0.04800	0.10000	500	500	500	0.0	0.0	1	-60	60
	111	114	0.00500	0.04200	0.08800	500	500	500	0.0	0.0	1	-60	60
	112	113	0.00600	0.04800	0.10000	500	500	500	0.0	0.0	1	-60	60
	112	123	0.01200	0.09700	0.20300	500	500	500	0.0	0.0	1	-60	60
	113	123	0.01100	0.08700	0.18200	500	500	500	0.0	0.0	1	-60	60
	113	215	0.01000	0.07500	0.15800	500	500	500	0.0	0.0	1	-60	60
	114	116	0.00500	0.05900	0.08200	500	500	500	0.0	0.0	1	-60	60
	115	116	0.00200	0.01700	0.03600	500	500	500	0.0	0.0	1	-60	60
	115	121	0.00600	0.04900	0.10300	500	500	500	0.0	0.0	1	-60	60
	115	121	0.00600	0.04900	0.10300	500	500	500	0.0	0.0	1	-60	60
	115	124	0.00700	0.05200	0.10900	500	500	500	0.0	0.0	1	-60	60
	116	117	0.00300	0.02600	0.05500	500	500	500	0.0	0.0	1	-60	60
	116	119	0.00300	0.02300	0.04900	500	500	500	0.0	0.0	1	-60	60
	117	118	0.00200	0.01400	0.03000	500	500	500	0.0	0.0	1	-60	60
	117	122	0.01400	0.10500	0.22100	500	500	500	0.0	0.0	1	-60	60
	118	121	0.00300	0.02600	0.05500	500	500	500	0.0	0.0	1	-60	60
	118	121	0.00300	0.02600	0.05500	500	500	500	0.0	0.0	1	-60	60
	119	120	0.00500	0.04000	0.08300	500	500	500	0.0	0.0	1	-60	60
	119	120	0.00500	0.04000	0.08300	500	500	500	0.0	0.0	1	-60	60
	120	123	0.00300	0.02200	0.04600	500	500	500	0.0	0.0	1	-60	60
	120	123	0.00300	0.02200	0.04600	500	500	500	0.0	0.0	1	-60	60
	121	122	0.00900	0.06800	0.14200	500	500	500	0.0	0.0	1	-60	60
	123	217	0.01000	0.07400	0.15500	500	500	500	0.0	0.0	1	-60	60
	201	202	0.00300	0.01400	0.46100	175	175	175	0.0	0.0	1	-60	60
	201	203	0.05500	0.21100	0.05700	175	175	175	0.0	0.0	1	-60	60
	201	205	0.02200	0.08500	0.02300	175	175	175	0.0	0.0	1	-60	60
	202	204	0.03300	0.12700	0.03400	175	175	175	0.0	0.0	1	-60	60
	202	206	0.05000	0.19200	0.05200	175	175	175	0.0	0.0	1	-60	60
	203	209	0.03100	0.11900	0.03200	175	175	175	0.0	0.0	1	-60	60
	203	224	0.00200	0.08400	0.00000	400	400	400	1.015	0.0	1	-60	60
	204	209	0.02700	0.10400	0.02800	175	175	175	0.0	0.0	1	-60	60
	205	210	0.02300	0.08800	0.02400	175	175	175	0.0	0.0	1	-60	60
	206	210	0.01400	0.06100	2.45900	175	175	175	0.0	0.0	1	-60	60
	207	208	0.01600	0.06100	0.01700	175	175	175	0.0	0.0	1	-60	60
	208	209	0.04300	0.16500	0.04500	175	175	175	0.0	0.0	1	-60	60
	208	210	0.04300	0.16500	0.04500	175	175	175	0.0	0.0	1	-60	60
	209	211	0.00200	0.08400	0.00000	400	400	400	1.03	0.0	1	-60	60
	209	212	0.00200	0.08400	0.00000	400	400	400	1.03	0.0	1	-60	60
	210	211	0.00200	0.08400	0.00000	400	400	400	1.015	0.0	1	-60	60
	210	212	0.00200	0.08400	0.00000	400	400	400	1.015	0.0	1	-60	60
	211	213	0.00600	0.04800	0.10000	500	500	500	0.0	0.0	1	-60	60
	211	214	0.00500	0.04200	0.08800	500	500	500	0.0	0.0	1	-60	60
	212	213	0.00600	0.04800	0.10000	500	500	500	0.0	0.0	1	-60	60
	212	223	0.01200	0.09700	0.20300	500	500	500	0.0	0.0	1	-60	60
	213	223	0.01100	0.08700	0.18200	500	500	500	0.0	0.0	1	-60	60
	214	216	0.00500	0.05900	0.08200	500	500	500	0.0	0.0	1	-60	60
	215	216	0.00200	0.01700	0.03600	500	500	500	0.0	0.0	1	-60	60
	215	221	0.00600	0.04900	0.10300	500	500	500	0.0	0.0	1	-60	60
	215	221	0.00600	0.04900	0.10300	500	500	500	0.0	0.0	1	-60	60
	215	224	0.00700	0.05200	0.10900	500	500	500	0.0	0.0	1	-60	60
	216	217	0.00300	0.02600	0.05500	500	500	500	0.0	0.0	1	-60	60
	216	219	0.00300	0.02300	0.04900	500	500	500	0.0	0.0	1	-60	60
	217	218	0.00200	0.01400	0.03000	500	500	500	0.0	0.0	1	-60	60
	217	222	0.01400	0.10500	0.22100	500	500	500	0.0	0.0	1	-60	60
	218	221	0.00300	0.02600	0.05500	500	500	500	0.0	0.0	1	-60	60
	218	221	0.00300	0.02600	0.05500	500	500	500	0.0	0.0	1	-60	60
	219	220	0.00500	0.04000	0.08300	500	500	500	0.0	0.0	1	-60	60
	219	220	0.00500	0.04000	0.08300	500	500	500	0.0	0.0	1	-60	60
	220	223	0.00300	0.02200	0.04600	500	500	500	0.0	0.0	1	-60	60
	220	223	0.00300	0.02200	0.04600	500	500	500	0.0	0.0	1	-60	60
	221	222	0.00900	0.06800	0.14200	500	500	500	0.0	0.0	1	-60	60
	301	302	0.00300	0.01400	0.46100	175	175	175	0.0	0.0	1	-60	60
	301	303	0.05500	0.21100	0.05700	175	175	175	0.0	0.0	1	-60	60
	301	305	0.02200	0.08500	0.02300	175	175	175	0.0	0.0	1	-60	60
	302	304	0.03300	0.12700	0.03400	175	175	175	0.0	0.0	1	-60	60
	302	306	0.05000	0.19200	0.05200	175	175	175	0.0	0.0	1	-60	60
	303	309	0.03100	0.11900	0.03200	175	175	175	0.0	0.0	1	-60	60
	303	324	0.00200	0.08400	0.00000	400	400	400	1.015	0.0	1	-60	60
	304	309	0.02700	0.10400	0.02800	175	175	175	0.0	0.0	1	-60	60
	305	310	0.02300	0.08800	0.02400	175	175	175	0.0	0.0	1	-60	60
	306	310	0.01400	0.06100	2.45900	175	175	175	0.0	0.0	1	-60	60
	307	308	0.01600	0.06100	0.01700	175	175	175	0.0	0.0	1	-60	60
	308	309	0.04300	0.16500	0.04500	175	175	175	0.0	0.0	1	-60	60
	308	310	0.04300	0.16500	0.04500	175	175	175	0.0	0.0	1	-60	60
	309	311	0.00200	0.08400	0.00000	400	400	400	1.03	0.0	1	-60	60
	309	312	0.00200	0.08400	0.00000	400	400	400	1.03	0.0	1	-60	60
	310	311	0.00200	0.08400	0.00000	400	400	400	1.015	0.0	1	-60	60
	310	312	0.00200	0.08400	0.00000	400	400	400	1.015	0.0	1	-60	60
	311	313	0.00600	0.04800	0.10000	500	500	500	0.0	0.0	1	-60	60
	311	314	0.00500	0.04200	0.08800	500	500	500	0.0	0.0	1	-60	60
	312	313	0.00600	0.04800	0.10000	500	500	500	0.0	0.0	1	-60	60
	312	323	0.01200	0.09700	0.20300	500	500	500	0.0	0.0	1	-60	60
	313	323	0.01100	0.08700	0.18200	500	500	500	0.0	0.0	1	-60	60
	314	316	0.00500	0.05900	0.08200	500	500	500	0.0	0.0	1	-60	60
	315	316	0.00200	0.01700	0.03600	500	500	500	0.0	0.0	1	-60	60
	315	321	0.00600	0.04900	0.10300	500	500	500	0.0	0.0	1	-60	60
	315	321	0.00600	0.04900	0.10300	500	500	500	0.0	0.0	1	-60	60
	315	324	0.00700	0.05200	0.10900	500	500	500	0.0	0.0	1	-60	60
	316	317	0.00300	0.02600	0.05500	500	500	500	0.0	0.0	1	-60	60
	316	319	0.00300	0.02300	0.04900	500	500	500	0.0	0.0	1	-60	60
	317	318	0.00200	0.01400	0.03000	500	500	500	0.0	0.0	1	-60	60
	317	322	0.01400	0.10500	0.22100	500	500	500	0.0	0.0	1	-60	60
	318	321	0.00300	0.02600	0.05500	500	500	500	0.0	0.0	1	-60	60
	318	321	0.00300	0.02600	0.05500	500	500	500	0.0	0.0	1	-60	60
	319	320	0.00500	0.04000	0.08300	500	500	500	0.0	0.0	1	-60	60
	319	320	0.00500	0.04000	0.08300	500	500	500	0.0	0.0	1	-60	60
	320	323	0.00300	0.02200	0.04600	500	500	500	0.0	0.0	1	-60	60
	320	323	0.00300	0.02200	0.04600	500	500	500	0.0	0.0	1	-60	60
	321	322	0.00900	0.06800	0.14200	500	500	500	0.0	0.0	1	-60	60
	325	121	0.01200	0.09700	0.20300	500	500	500	0.0	0.0	1	-60	60
	318	223	0.01300	0.10400	0.21800	500	500	500	0.0	0.0	1	-60	60
	323	325	0.00000	0.00900	0.00000	722	722	722	1.0	0.0	1	-60	60
];

    %%-----  OPF Data  -----%%
    %% generator cost data
    %   1   startup shutdown    n   x1  y1  ... xn  yn
    %   2   startup shutdown    n   c(n-1)  ... c0
    mpc.gencost = [
	2	51.74700	51.74700	2	135.72203		0.00000
	2	51.74700	51.74700	2	135.72203		0.00000
	2	11172.01435	11172.01435	2	28.05265		0.00000
	2	11172.01435	11172.01435	2	28.05265		0.00000
	2	51.74700	51.74700	2	151.50487		0.00000
	2	51.74700	51.74700	2	151.50487		0.00000
	2	11172.01435	11172.01435	2	24.50326		0.00000
	2	11172.01435	11172.01435	2	24.50326		0.00000
	2	28046.68102	28046.68102	2	28.07350		0.00000
	2	5665.23443	5665.23443	2	51.01976		0.00000
	2	5665.23443	5665.23443	2	51.01976		0.00000
	2	5665.23443	5665.23443	2	51.01976		0.00000
	2	5665.23443	5665.23443	2	51.01976		0.00000
	2	703.75920	703.75920	2	179.45860		0.00000
	2	703.75920	703.75920	2	179.45860		0.00000
	2	22784.79562	22784.79562	2	24.19673		0.00000
	2	22784.79562	22784.79562	2	27.98500		0.00000
	2	28046.68102	28046.68102	2	28.20956		0.00000
	2	22784.79562	22784.79562	2	23.18413		0.00000
	2	36749.81356	36749.81356	2	25.59196		0.00000
	2	5665.23443	5665.23443	2	49.46487		0.00000
	2	5665.23443	5665.23443	2	49.46487		0.00000
	2	5665.23443	5665.23443	2	49.46487		0.00000
	2	51.74700	51.74700	2	144.65356		0.00000
	2	51.74700	51.74700	2	144.65356		0.00000
	2	11172.01435	11172.01435	2	27.45862		0.00000
	2	51.74700	51.74700	2	141.40385		0.00000
	2	51.74700	51.74700	2	141.40385		0.00000
	2	11172.01435	11172.01435	2	25.04233		0.00000
	2	11172.01435	11172.01435	2	25.04233		0.00000
	2	5665.23443	5665.23443	2	50.73211		0.00000
	2	5665.23443	5665.23443	2	50.73211		0.00000
	2	28046.68102	28046.68102	2	30.41361		0.00000
	2	5665.23443	5665.23443	2	51.01976		0.00000
	2	5665.23443	5665.23443	2	51.01976		0.00000
	2	5665.23443	5665.23443	2	55.31125		0.00000
	2	5665.23443	5665.23443	2	55.31125		0.00000
	2	22784.79562	22784.79562	2	23.00233		0.00000
	2	28046.68102	28046.68102	2	44.25600		0.00000
	2	28046.68102	28046.68102	2	26.77128		0.00000
	2	22784.79562	22784.79562	2	22.95159		0.00000
	2	22784.79562	22784.79562	2	22.95159		0.00000
	2	36749.81356	36749.81356	2	23.73799		0.00000
	2	5665.23443	5665.23443	2	76.94363		0.00000
	2	5665.23443	5665.23443	2	76.94363		0.00000
	2	5665.23443	5665.23443	2	76.94363		0.00000
	2	51.74700	51.74700	2	151.02879		0.00000
	2	51.74700	51.74700	2	151.02879		0.00000
	2	5665.23443	5665.23443	2	50.88371		0.00000
	2	5665.23443	5665.23443	2	50.88371		0.00000
	2	51.74700	51.74700	2	151.02879		0.00000
	2	51.74700	51.74700	2	151.02879		0.00000
	2	5665.23443	5665.23443	2	59.84375		0.00000
	2	5665.23443	5665.23443	2	59.84375		0.00000
	2	5665.23443	5665.23443	2	51.90605		0.00000
	2	5665.23443	5665.23443	2	51.90605		0.00000
	2	28046.68102	28046.68102	2	30.84120		0.00000
	2	703.75920	703.75920	2	149.13485		0.00000
	2	703.75920	703.75920	2	149.13485		0.00000
	2	703.75920	703.75920	2	149.13485		0.00000
	2	703.75920	703.75920	2	149.13485		0.00000
	2	703.75920	703.75920	2	149.13485		0.00000
	2	5665.23443	5665.23443	2	40.20163		0.00000
	2	5665.23443	5665.23443	2	40.20163		0.00000
	2	5665.23443	5665.23443	2	40.20163		0.00000
	2	22784.79562	22784.79562	2	25.04233		0.00000
	2	28046.68102	28046.68102	2	30.91117		0.00000
	2	28046.68102	28046.68102	2	28.09294		0.00000
	2	5665.23443	5665.23443	2	46.89542		0.00000
	2	5665.23443	5665.23443	2	46.89542		0.00000
	2	28046.68102	28046.68102	2	28.69157		0.00000
	2	28046.68102	28046.68102	2	28.69157		0.00000
	2	63999.82230	63999.82230	2	8.10350		0.00000
	2	0.00000	0.00000	2	0.00000		0.00000
	2	0.00000	0.00000	2	0.00000		0.00000
	2	0.00000	0.00000	2	0.00000		0.00000
	2	0.00000	0.00000	2	0.00000		0.00000
	2	0.00000	0.00000	2	0.00000		0.00000
	2	0.00000	0.00000	2	0.00000		0.00000
	2	0.00000	0.00000	2	0.00000		0.00000
	2	0.00000	0.00000	2	0.00000		0.00000
	2	0.00000	0.00000	2	0.00000		0.00000
	2	0.00000	0.00000	2	0.00000		0.00000
	2	0.00000	0.00000	2	0.00000		0.00000
	2	0.00000	0.00000	2	0.00000		0.00000
	2	0.00000	0.00000	2	0.00000		0.00000
	2	0.00000	0.00000	2	0.00000		0.00000
	2	0.00000	0.00000	2	0.00000		0.00000
	2	0.00000	0.00000	2	0.00000		0.00000
	2	0.00000	0.00000	2	0.00000		0.00000
	2	0.00000	0.00000	2	0.00000		0.00000
	2	0.00000	0.00000	2	0.00000		0.00000
	2	0.00000	0.00000	2	0.00000		0.00000
	2	0.00000	0.00000	2	0.00000		0.00000
	2	0.00000	0.00000	2	0.00000		0.00000
	2	0.00000	0.00000	2	0.00000		0.00000
	2	0.00000	0.00000	2	0.00000		0.00000
	2	0.00000	0.00000	2	0.00000		0.00000
	2	0.00000	0.00000	2	0.00000		0.00000
	2	0.00000	0.00000	2	0.00000		0.00000
	2	0.00000	0.00000	2	0.00000		0.00000
	2	0.00000	0.00000	2	0.00000		0.00000
	2	0.00000	0.00000	2	0.00000		0.00000
	2	0.00000	0.00000	2	0.00000		0.00000
	2	0.00000	0.00000	2	0.00000		0.00000
	2	0.00000	0.00000	2	0.00000		0.00000
	2	0.00000	0.00000	2	0.00000		0.00000
	2	0.00000	0.00000	2	0.00000		0.00000
	2	0.00000	0.00000	2	0.00000		0.00000
	2	0.00000	0.00000	2	0.00000		0.00000
	2	0.00000	0.00000	2	0.00000		0.00000
	2	0.00000	0.00000	2	0.00000		0.00000
	2	0.00000	0.00000	2	0.00000		0.00000
	2	10000.00000	0.00000	2	0.00000		0.00000
	2	0.00000	0.00000	2	0.00000		0.00000
	2	0.00000	0.00000	2	0.00000		0.00000
	2	0.00000	0.00000	2	0.00000		0.00000
	2	0.00000	0.00000	2	0.00000		0.00000
	2	0.00000	0.00000	2	0.00000		0.00000
	2	0.00000	0.00000	2	0.00000		0.00000
	2	0.00000	0.00000	2	0.00000		0.00000
	2	0.00000	0.00000	2	0.00000		0.00000
	2	0.00000	0.00000	2	0.00000		0.00000
	2	0.00000	0.00000	2	0.00000		0.00000
	2	0.00000	0.00000	2	0.00000		0.00000
	2	0.00000	0.00000	2	0.00000		0.00000
	2	0.00000	0.00000	2	0.00000		0.00000
	2	0.00000	0.00000	2	0.00000		0.00000
	2	0.00000	0.00000	2	0.00000		0.00000
	2	0.00000	0.00000	2	0.00000		0.00000
	2	0.00000	0.00000	2	0.00000		0.00000
	2	0.00000	0.00000	2	0.00000		0.00000
	2	0.00000	0.00000	2	0.00000		0.00000
	2	0.00000	0.00000	2	0.00000		0.00000
	2	0.00000	0.00000	2	0.00000		0.00000
	2	0.00000	0.00000	2	0.00000		0.00000
	2	0.00000	0.00000	2	0.00000		0.00000
	2	0.00000	0.00000	2	0.00000		0.00000
	2	0.00000	0.00000	2	0.00000		0.00000
	2	0.00000	0.00000	2	0.00000		0.00000
	2	0.00000	0.00000	2	0.00000		0.00000
	2	0.00000	0.00000	2	0.00000		0.00000
	2	0.00000	0.00000	2	0.00000		0.00000
	2	0.00000	0.00000	2	0.00000		0.00000
	2	0.00000	0.00000	2	0.00000		0.00000
	2	0.00000	0.00000	2	0.00000		0.00000
	2	0.00000	0.00000	2	0.00000		0.00000
	2	0.00000	0.00000	2	0.00000		0.00000
	2	0.00000	0.00000	2	0.00000		0.00000
	2	0.00000	0.00000	2	0.00000		0.00000
	2	0.00000	0.00000	2	0.00000		0.00000
	2	0.00000	0.00000	2	0.00000		0.00000
	2	0.00000	0.00000	2	0.00000		0.00000
	2	0.00000	0.00000	2	0.00000		0.00000
];


    % bus names
    %column_names%	name
    mpc.bus_name = {
	'ABEL';
	'ADAMS';
	'ADLER';
	'AGRICOLA';
	'AIKEN';
	'ALBER';
	'ALDER';
	'ALGER';
	'ALI';
	'ALLEN';
	'ANNA';
	'ARCHER';
	'ARNE';
	'ARNOLD';
	'ARTHUR';
	'ASSER';
	'ASTON';
	'ASTOR';
	'ATTAR';
	'ATTILA';
	'ATTLEE';
	'AUBREY';
	'AUSTEN';
	'AVERY';
	'BACH';
	'BACON';
	'BAFFIN';
	'BAILEY';
	'BAIN';
	'BAJER';
	'BAKER';
	'BALCH';
	'BALZAC';
	'BANKS';
	'BARDEEN';
	'BARKLA';
	'BARLOW';
	'BARRY';
	'BARTON';
	'BASOV';
	'BATES';
	'BAYLE';
	'BEDE';
	'BEETHOVEN';
	'BEHRING';
	'BELL';
	'BLOCH';
	'BORDET';
	'CABELL';
	'CABOT';
	'CAESAR';
	'CAINE';
	'CALVIN';
	'CAMUS';
	'CAREW';
	'CARREL';
	'CARTER';
	'CARUSO';
	'CARY';
	'CAXTON';
	'CECIL';
	'CHAIN';
	'CHASE';
	'CHIFA';
	'CHUHSI';
	'CLARK';
	'CLAY';
	'CLIVE';
	'COBB';
	'COLE';
	'COMTE';
	'CURIE';
	'CURTISS';
};


    % generator names types and fuels
    %column_names%	name    type    fuel
    mpc.gen_name = {
	'101_CT_1'	'CT'	'Oil';
	'101_CT_2'	'CT'	'Oil';
	'101_STEAM_3'	'STEAM'	'Coal';
	'101_STEAM_4'	'STEAM'	'Coal';
	'102_CT_1'	'CT'	'Oil';
	'102_CT_2'	'CT'	'Oil';
	'102_STEAM_3'	'STEAM'	'Coal';
	'102_STEAM_4'	'STEAM'	'Coal';
	'107_CC_1'	'CC'	'NG';
	'113_CT_1'	'CT'	'NG';
	'113_CT_2'	'CT'	'NG';
	'113_CT_3'	'CT'	'NG';
	'113_CT_4'	'CT'	'NG';
	'115_STEAM_1'	'STEAM'	'Oil';
	'115_STEAM_2'	'STEAM'	'Oil';
	'115_STEAM_3'	'STEAM'	'Coal';
	'116_STEAM_1'	'STEAM'	'Coal';
	'118_CC_1'	'CC'	'NG';
	'123_STEAM_2'	'STEAM'	'Coal';
	'123_STEAM_3'	'STEAM'	'Coal';
	'123_CT_1'	'CT'	'NG';
	'123_CT_4'	'CT'	'NG';
	'123_CT_5'	'CT'	'NG';
	'201_CT_1'	'CT'	'Oil';
	'201_CT_2'	'CT'	'Oil';
	'201_STEAM_3'	'STEAM'	'Coal';
	'202_CT_1'	'CT'	'Oil';
	'202_CT_2'	'CT'	'Oil';
	'202_STEAM_3'	'STEAM'	'Coal';
	'202_STEAM_4'	'STEAM'	'Coal';
	'207_CT_1'	'CT'	'NG';
	'207_CT_2'	'CT'	'NG';
	'213_CC_3'	'CC'	'NG';
	'213_CT_1'	'CT'	'NG';
	'213_CT_2'	'CT'	'NG';
	'215_CT_4'	'CT'	'NG';
	'215_CT_5'	'CT'	'NG';
	'216_STEAM_1'	'STEAM'	'Coal';
	'218_CC_1'	'CC'	'NG';
	'221_CC_1'	'CC'	'NG';
	'223_STEAM_1'	'STEAM'	'Coal';
	'223_STEAM_2'	'STEAM'	'Coal';
	'223_STEAM_3'	'STEAM'	'Coal';
	'223_CT_4'	'CT'	'NG';
	'223_CT_5'	'CT'	'NG';
	'223_CT_6'	'CT'	'NG';
	'301_CT_1'	'CT'	'Oil';
	'301_CT_2'	'CT'	'Oil';
	'301_CT_3'	'CT'	'NG';
	'301_CT_4'	'CT'	'NG';
	'302_CT_1'	'CT'	'Oil';
	'302_CT_2'	'CT'	'Oil';
	'302_CT_3'	'CT'	'NG';
	'302_CT_4'	'CT'	'NG';
	'307_CT_1'	'CT'	'NG';
	'307_CT_2'	'CT'	'NG';
	'313_CC_1'	'CC'	'NG';
	'315_STEAM_1'	'STEAM'	'Oil';
	'315_STEAM_2'	'STEAM'	'Oil';
	'315_STEAM_3'	'STEAM'	'Oil';
	'315_STEAM_4'	'STEAM'	'Oil';
	'315_STEAM_5'	'STEAM'	'Oil';
	'315_CT_6'	'CT'	'NG';
	'315_CT_7'	'CT'	'NG';
	'315_CT_8'	'CT'	'NG';
	'316_STEAM_1'	'STEAM'	'Coal';
	'318_CC_1'	'CC'	'NG';
	'321_CC_1'	'CC'	'NG';
	'322_CT_5'	'CT'	'NG';
	'322_CT_6'	'CT'	'NG';
	'323_CC_1'	'CC'	'NG';
	'323_CC_2'	'CC'	'NG';
	'121_NUCLEAR_1'	'NUCLEAR'	'Nuclear';
	'122_HYDRO_1'	'HYDRO'	'Hydro';
	'122_HYDRO_2'	'HYDRO'	'Hydro';
	'122_HYDRO_3'	'HYDRO'	'Hydro';
	'122_HYDRO_4'	'HYDRO'	'Hydro';
	'122_HYDRO_5'	'HYDRO'	'Hydro';
	'122_HYDRO_6'	'HYDRO'	'Hydro';
	'201_HYDRO_4'	'ROR'	'Hydro';
	'215_HYDRO_1'	'HYDRO'	'Hydro';
	'215_HYDRO_2'	'HYDRO'	'Hydro';
	'215_HYDRO_3'	'HYDRO'	'Hydro';
	'222_HYDRO_1'	'HYDRO'	'Hydro';
	'222_HYDRO_2'	'HYDRO'	'Hydro';
	'222_HYDRO_3'	'HYDRO'	'Hydro';
	'222_HYDRO_4'	'HYDRO'	'Hydro';
	'222_HYDRO_5'	'HYDRO'	'Hydro';
	'222_HYDRO_6'	'HYDRO'	'Hydro';
	'322_HYDRO_1'	'HYDRO'	'Hydro';
	'322_HYDRO_2'	'HYDRO'	'Hydro';
	'322_HYDRO_3'	'HYDRO'	'Hydro';
	'322_HYDRO_4'	'HYDRO'	'Hydro';
	'320_PV_1'	'PV'	'Solar';
	'314_PV_1'	'PV'	'Solar';
	'314_PV_2'	'PV'	'Solar';
	'313_PV_1'	'PV'	'Solar';
	'314_PV_3'	'PV'	'Solar';
	'314_PV_4'	'PV'	'Solar';
	'313_PV_2'	'PV'	'Solar';
	'310_PV_1'	'PV'	'Solar';
	'324_PV_1'	'PV'	'Solar';
	'312_PV_1'	'PV'	'Solar';
	'310_PV_2'	'PV'	'Solar';
	'324_PV_2'	'PV'	'Solar';
	'324_PV_3'	'PV'	'Solar';
	'113_PV_1'	'PV'	'Solar';
	'319_PV_1'	'PV'	'Solar';
	'215_PV_1'	'PV'	'Solar';
	'102_PV_1'	'PV'	'Solar';
	'101_PV_1'	'PV'	'Solar';
	'102_PV_2'	'PV'	'Solar';
	'104_PV_1'	'PV'	'Solar';
	'212_CSP_1'	'CSP'	'Solar';
	'101_PV_2'	'PV'	'Solar';
	'101_PV_3'	'PV'	'Solar';
	'101_PV_4'	'PV'	'Solar';
	'103_PV_1'	'PV'	'Solar';
	'119_PV_1'	'PV'	'Solar';
	'308_RTPV_1'	'RTPV'	'Solar';
	'313_RTPV_1'	'RTPV'	'Solar';
	'313_RTPV_2'	'RTPV'	'Solar';
	'313_RTPV_3'	'RTPV'	'Solar';
	'313_RTPV_4'	'RTPV'	'Solar';
	'313_RTPV_5'	'RTPV'	'Solar';
	'313_RTPV_6'	'RTPV'	'Solar';
	'313_RTPV_7'	'RTPV'	'Solar';
	'313_RTPV_8'	'RTPV'	'Solar';
	'313_RTPV_9'	'RTPV'	'Solar';
	'313_RTPV_10'	'RTPV'	'Solar';
	'313_RTPV_11'	'RTPV'	'Solar';
	'313_RTPV_12'	'RTPV'	'Solar';
	'320_RTPV_1'	'RTPV'	'Solar';
	'320_RTPV_2'	'RTPV'	'Solar';
	'320_RTPV_3'	'RTPV'	'Solar';
	'313_RTPV_13'	'RTPV'	'Solar';
	'320_RTPV_4'	'RTPV'	'Solar';
	'320_RTPV_5'	'RTPV'	'Solar';
	'118_RTPV_1'	'RTPV'	'Solar';
	'118_RTPV_2'	'RTPV'	'Solar';
	'118_RTPV_3'	'RTPV'	'Solar';
	'118_RTPV_4'	'RTPV'	'Solar';
	'118_RTPV_5'	'RTPV'	'Solar';
	'118_RTPV_6'	'RTPV'	'Solar';
	'320_RTPV_6'	'RTPV'	'Solar';
	'118_RTPV_7'	'RTPV'	'Solar';
	'118_RTPV_8'	'RTPV'	'Solar';
	'118_RTPV_9'	'RTPV'	'Solar';
	'118_RTPV_10'	'RTPV'	'Solar';
	'213_RTPV_1'	'RTPV'	'Solar';
	'309_WIND_1'	'WIND'	'Wind';
	'317_WIND_1'	'WIND'	'Wind';
	'303_WIND_1'	'WIND'	'Wind';
	'122_WIND_1'	'WIND'	'Wind';
};